.........................................Table Of Contents...............................................................
1. Precedural data. <URL:#tn=1. Precedural data.>
	1.1 Mailing lists <URL:#tn=	1.1 Mailing lists>
2. Important documents. <URL:#tn=2. Important documents.>
	2.1 Get started <URL:#tn=	2.1 Get started>
		2.1.1 RT architecture  (phase I) : <URL:#tn=		2.1.1 RT architecture  (phase I) :>
		2.1.2 ACS 5.0 portal: <URL:#tn=		2.1.2 ACS 5.0 portal:>
		2.1.3 AAC SFS: <URL:#tn=		2.1.3 AAC SFS:>
		2.1.4 RT architecture (phase II): <URL:#tn=		2.1.4 RT architecture (phase II):>
		2.1.5 PKI, ID Stores <URL:#tn=		2.1.5 PKI, ID Stores>
	2.2 TAC Training <URL:#tn=	2.2 TAC Training>
	2.3 User guide <URL:#tn=	2.3 User guide>
	2.4 <URL:#tn=	2.4>
3.	Development environment. <URL:#tn=3.	Development environment.>
	3.1 Important links <URL:#tn=	3.1 Important links>
		3.1.1 Developer zone. <URL:#tn=		3.1.1 Developer zone.>
		3.2.2 Path to runtime code <URL:#tn=		3.2.2 Path to runtime code>
	3.2 Tools <URL:#tn=	3.2 Tools>
		3.2.1 Clear Case <URL:#tn=		3.2.1 Clear Case>
		3.2.2 Reflection <URL:#tn=		3.2.2 Reflection>
		3.2.3 K Develop <URL:#tn=		3.2.3 K Develop>
		3.2.4 Putty <URL:#tn=		3.2.4 Putty>
		3.2.5 Testing <URL:#tn=		3.2.5 Testing>
			3.2.5.1 Tacacs client <URL:#tn=			3.2.5.1 Tacacs client>
				3.2.5.1.1 Built-in ACS4 <URL:#tn=				3.2.5.1.1 Built-in ACS4>
				3.2.5.1.2 winTacacs <URL:#tn=				3.2.5.1.2 winTacacs>
				3.2.5.1.3 <URL:#tn=				3.2.5.1.3>
			3.2.5.2 ACS client <URL:#tn=			3.2.5.2 ACS client>
				3.2.5.2.1 Install <URL:#tn=				3.2.5.2.1 Install>
				3.2.5.2.2 Preliminery configuration <URL:#tn=				3.2.5.2.2 Preliminery configuration>
				3.2.5.2.3 Run simple test <URL:#tn=				3.2.5.2.3 Run simple test>
				3.2.5.2.4 Run tests <URL:#tn=				3.2.5.2.4 Run tests>
					3.2.5.2.4.1 Run PAP <URL:#tn=					3.2.5.2.4.1 Run PAP>
					3.2.5.2.4.2 Run EAP-FAST v1a MSCHAP <URL:#tn=					3.2.5.2.4.2 Run EAP-FAST v1a MSCHAP>
				3.2.5.2.5 <URL:#tn=				3.2.5.2.5>
		3.2.6 DTP and test case matrix - TIMS <URL:#tn=		3.2.6 DTP and test case matrix - TIMS>
			3.2.6.1 URL: http://tims.cisco.com/warp.cmd?ent=Td17924p <URL:#tn=			3.2.6.1 URL: http://tims.cisco.com/warp.cmd?ent=Td17924p>
		3.2.7 <URL:#tn=		3.2.7>
	3.3 Servers <URL:#tn=	3.3 Servers>
		3.3.1 odermer-lnx <URL:#tn=		3.3.1 odermer-lnx>
		3.3.2 amlzar-lnx <URL:#tn=		3.3.2 amlzar-lnx>
		3.3.3 yizaq-lnx <URL:#tn=		3.3.3 yizaq-lnx>
	3.4 File Transfer <URL:#tn=	3.4 File Transfer>
		3.4.1	sftp <machine name> <URL:#tn=		3.4.1	sftp <machine name>>
		3.4.2. File server for users: <URL:#tn=		3.4.2. File server for users:>
	3.5 Compile, Build <URL:#tn=	3.5 Compile, Build>
		3.5.1 Maven <URL:#tn=		3.5.1 Maven>
			3.5.1.1 Initial steps <URL:#tn=			3.5.1.1 Initial steps>
	    			3.5.1.1.1 Current version <URL:#tn=	    			3.5.1.1.1 Current version>
	    			3.5.1.1.2 Shell settings <URL:#tn=	    			3.5.1.1.2 Shell settings>
			3.5.1.2 Work with maven <URL:#tn=			3.5.1.2 Work with maven>
			3.5.1.3 Pom.xml facts <URL:#tn=			3.5.1.3 Pom.xml facts>
			3.5.1.4 dependencies  <URL:#tn=			3.5.1.4 dependencies >
			3.5.1.5 Runtime TOI <URL:#tn=			3.5.1.5 Runtime TOI>
				3.5.1.5.1 RT pom.xml, vob/nm_acs/acs/runtime/pom.xml <URL:#tn=				3.5.1.5.1 RT pom.xml, vob/nm_acs/acs/runtime/pom.xml>
			3.5.1.6 Troubleshooting maven <URL:#tn=			3.5.1.6 Troubleshooting maven>
				3.5.1.6.1 Error: blurb... (Too many open files) <URL:#tn=				3.5.1.6.1 Error: blurb... (Too many open files)>
				3.5.1.6.2 Error: java.lang.OutOfMemoryError: Java heap space  <URL:#tn=				3.5.1.6.2 Error: java.lang.OutOfMemoryError: Java heap space >
			3.5.1.7 Updates from Erez N.  <URL:#tn=			3.5.1.7 Updates from Erez N. >
	    			3.5.1.7.1 20/11/08 <URL:#tn=	    			3.5.1.7.1 20/11/08>
	    			3.5.1.7.2 26/04/08 <URL:#tn=	    			3.5.1.7.2 26/04/08>
			3.5.1.8 Executing system commands from maven (like make or javac) <URL:#tn=			3.5.1.8 Executing system commands from maven (like make or javac)>
			3.5.1.9 Passing arguments to maven command <URL:#tn=			3.5.1.9 Passing arguments to maven command>
			3.5.1.10 Deploying (Integrating) 3rd party lib <URL:#tn=			3.5.1.10 Deploying (Integrating) 3rd party lib>
				3.5.1.10.1 Deploying to build system <URL:#tn=				3.5.1.10.1 Deploying to build system>
				3.5.1.10.1 For runtime packaging of binaries modify: <URL:#tn=				3.5.1.10.1 For runtime packaging of binaries modify:>
		3.5.2 Make <URL:#tn=		3.5.2 Make>
		    		3.5.2.1 Introduction  <URL:#tn=		    		3.5.2.1 Introduction >
		    		3.5.2.2 Before you start  <URL:#tn=		    		3.5.2.2 Before you start >
		    		3.5.2.3 Commands <URL:#tn=		    		3.5.2.3 Commands>
		    		3.5.2.4 Directories <URL:#tn=		    		3.5.2.4 Directories>
		    		3.5.2.5 Structure <URL:#tn=		    		3.5.2.5 Structure>
		    		3.5.2.6 debug unit tests code. Enable debug symbols. <URL:#tn=		    		3.5.2.6 debug unit tests code. Enable debug symbols.>
		    		3.5.2.7 Add a new lib for usage of component or its UT <URL:#tn=		    		3.5.2.7 Add a new lib for usage of component or its UT>
		    		3.5.2.8 Specify which unit tests to run for lib that has multiple CPP unit test files. <URL:#tn=		    		3.5.2.8 Specify which unit tests to run for lib that has multiple CPP unit test files.>
		    		3.5.2.9 Define macros on command line and not in code.  <URL:#tn=		    		3.5.2.9 Define macros on command line and not in code. >
		3.5.3 Optimization <URL:#tn=		3.5.3 Optimization>
			3.5.3.1 Optimization in 5.0.x <URL:#tn=			3.5.3.1 Optimization in 5.0.x>
	3.6 Refresh dependencies <URL:#tn=	3.6 Refresh dependencies>
	3.7 Doxygen <URL:#tn=	3.7 Doxygen>
	3.8 Automation tools, supportive tools <URL:#tn=	3.8 Automation tools, supportive tools>
	    	3.8.1 Automated testing <URL:#tn=	    	3.8.1 Automated testing>
	    	3.8.2 Automated ACS builds <URL:#tn=	    	3.8.2 Automated ACS builds>
	    	    	3.8.2.1 Order build <URL:#tn=	    	    	3.8.2.1 Order build>
	    	    	3.8.2.2 Manage build  <URL:#tn=	    	    	3.8.2.2 Manage build >
	    	3.8.3 Automated tests on integration stream builds <URL:#tn=	    	3.8.3 Automated tests on integration stream builds>
		3.9 logs, debug logs <URL:#tn=		3.9 logs, debug logs>
			3.9.1 Basics <URL:#tn=			3.9.1 Basics>
			3.9.2 Open debug logs selectively per log sources  <URL:#tn=			3.9.2 Open debug logs selectively per log sources >
		3.10 <URL:#tn=		3.10>
4. ACS installation <URL:#tn=4. ACS installation>
	4.1 Linux installation process: <URL:#tn=	4.1 Linux installation process:>
		4.1.1	Installing the Server <URL:#tn=		4.1.1	Installing the Server>
				4.1.1.1 Summarizes install procedure <URL:#tn=				4.1.1.1 Summarizes install procedure>
		4.1.2 Activation of ACS product (in development environment) <URL:#tn=		4.1.2 Activation of ACS product (in development environment)>
		4.1.3 Uninstall ACS, Removing the Server <URL:#tn=		4.1.3 Uninstall ACS, Removing the Server>
		4.1.4 Install ACS on CARS (appliance or VMWARE - costumer environment) <URL:#tn=		4.1.4 Install ACS on CARS (appliance or VMWARE - costumer environment)>
			4.1.4.1 Install CARS image <URL:#tn=			4.1.4.1 Install CARS image>
			4.1.4.2 Install ACS on CARS <URL:#tn=			4.1.4.2 Install ACS on CARS>
				4.1.4.2.1 Locate latest ACS image <URL:#tn=				4.1.4.2.1 Locate latest ACS image>
				4.1.4.2.2 Store ACS bundle on FTP server <URL:#tn=				4.1.4.2.2 Store ACS bundle on FTP server>
				4.1.4.2.3 Make sure the machine is allocate in RAS <URL:#tn=				4.1.4.2.3 Make sure the machine is allocate in RAS>
				4.1.4.2.4 Create a repository <URL:#tn=				4.1.4.2.4 Create a repository>
			4.1.4.3 <URL:#tn=			4.1.4.3>
		4.1.5 <URL:#tn=		4.1.5>
	4.2 DB, connect to DB, troubleshooting DB issues <URL:#tn=	4.2 DB, connect to DB, troubleshooting DB issues>
		4.2.1 DB Visualizer <URL:#tn=		4.2.1 DB Visualizer>
			4.2.1.1 Installation <URL:#tn=			4.2.1.1 Installation>
			4.2.1.2 Usage <URL:#tn=			4.2.1.2 Usage>
	4.3 Procedure to build ACS RPM. <URL:#tn=	4.3 Procedure to build ACS RPM.>
		4.3.1 (optional) make sure your stream is rebased to the latest baseline. <URL:#tn=		4.3.1 (optional) make sure your stream is rebased to the latest baseline.>
		4.3.2 remove the local repository,  <URL:#tn=		4.3.2 remove the local repository, >
		4.3.3 recreate repository <URL:#tn=		4.3.3 recreate repository>
		4.3.4 mvn clean and procedure to clean private files <URL:#tn=		4.3.4 mvn clean and procedure to clean private files>
		4.3.5 mvn install <URL:#tn=		4.3.5 mvn install>
	4.4 CARS installation guide <URL:#tn=	4.4 CARS installation guide>
		4.4.1 Create package <URL:#tn=		4.4.1 Create package>
		4.4.2 Install <URL:#tn=		4.4.2 Install>
		4.4.3 Troubleshooting <URL:#tn=		4.4.3 Troubleshooting>
5. Running ACS. <URL:#tn=5. Running ACS.>
	5.1 Running ACS in development environment, RT deamon. <URL:#tn=	5.1 Running ACS in development environment, RT deamon.>
		5.1.1 Giora's Instructions  <URL:#tn=		5.1.1 Giora's Instructions >
		5.1.2 Wiki instructions <URL:#tn=		5.1.2 Wiki instructions>
	5.2 How to create rpm on the dev. view <URL:#tn=	5.2 How to create rpm on the dev. view>
	5.3 How to get "package.cab" of the running ACS? <URL:#tn=	5.3 How to get "package.cab" of the running ACS?>
	5.4 How to run daemon with generated file on fresh install <URL:#tn=	5.4 How to run daemon with generated file on fresh install>
6. Review design docs. <URL:#tn=6. Review design docs.>
	6.1 PRRQ system, http://wwwin-tools.cisco.com/prrq/viewQueue.do?queueName=ACS5-Architecture <URL:#tn=	6.1 PRRQ system, http://wwwin-tools.cisco.com/prrq/viewQueue.do?queueName=ACS5-Architecture>
	6.2 Don't forget to publish the comment in order for it to be reviewed. <URL:#tn=	6.2 Don't forget to publish the comment in order for it to be reviewed.>
	6.3 Post design doc. for review. <URL:#tn=	6.3 Post design doc. for review.>
		6.3.1 go to PRRQ, http://wwwin-tools.cisco.com/prrq/ <URL:#tn=		6.3.1 go to PRRQ, http://wwwin-tools.cisco.com/prrq/>
		6.3.2 Choose queue,"ACS_5_1_System_Specs" <URL:#tn=		6.3.2 Choose queue,"ACS_5_1_System_Specs">
		6.3.3 Choose "new request" <URL:#tn=		6.3.3 Choose "new request">
		6.3.4 Add design Doc to EDCS, http://wwwin-eng.cisco.com/Eng/NMTG/User_Services/Projects/ACS/ACS_5.0/Phase_II/SW_Specs/,  <URL:#tn=		6.3.4 Add design Doc to EDCS, http://wwwin-eng.cisco.com/Eng/NMTG/User_Services/Projects/ACS/ACS_5.0/Phase_II/SW_Specs/, >
		6.3.5 Enter EDCS #, fill subsequent form <URL:#tn=		6.3.5 Enter EDCS #, fill subsequent form>
7. Code review <URL:#tn=7. Code review>
	7.1 Code review on remote BXB servers. <URL:#tn=	7.1 Code review on remote BXB servers.>
	7.2 Local code review <URL:#tn=	7.2 Local code review>
8. General code structure, directions, concepts <URL:#tn=8. General code structure, directions, concepts>
	8.1 Example of request flow, AAC <URL:#tn=	8.1 Example of request flow, AAC>
        8.2 Event handlers stuff <URL:#tn=        8.2 Event handlers stuff>
                8.2.1 Event handler needs to register which events it wants to process. <URL:#tn=                8.2.1 Event handler needs to register which events it wants to process.>
		8.2.2 Event handler's can build new events and pass them to corresponding event handlers for processing. <URL:#tn=		8.2.2 Event handler's can build new events and pass them to corresponding event handlers for processing.>
		8.2.3 onXXXEvent() function is invoked when XXX event is received. at the end of processing return true if further event handlers are called or false when all processing is done. <URL:#tn=		8.2.3 onXXXEvent() function is invoked when XXX event is received. at the end of processing return true if further event handlers are called or false when all processing is done.>
		8.2.4 memory allocation, <URL:#tn=		8.2.4 memory allocation,>
	8.3 Dictionaries. <URL:#tn=	8.3 Dictionaries.>
		8.3.1 Dictionary base class knows and add all derived dictionary classes. <URL:#tn=		8.3.1 Dictionary base class knows and add all derived dictionary classes.>
		8.3.2 Dictionaries define attributes and are passed on global context so any event handler can read/write from/to them. <URL:#tn=		8.3.2 Dictionaries define attributes and are passed on global context so any event handler can read/write from/to them.>
9. ACS debug <URL:#tn=9. ACS debug>
	9.1 Non deamon test files. <URL:#tn=	9.1 Non deamon test files.>
	9.2 Debug the RPM. <URL:#tn=	9.2 Debug the RPM.>
	9.3 Debug in dev env <URL:#tn=	9.3 Debug in dev env>
10. RT tips and tricks <URL:#tn=10. RT tips and tricks>
	10.1 Static Analysis, SA: <URL:#tn=	10.1 Static Analysis, SA:>
		10.1.1 With maven  <URL:#tn=		10.1.1 With maven >
		10.1.2 With Makefile <URL:#tn=		10.1.2 With Makefile>
	10.2 Quantify with ACS RT versions that use makefile <URL:#tn=	10.2 Quantify with ACS RT versions that use makefile>
		10.2.1 Quantify ACS RT daemon <URL:#tn=		10.2.1 Quantify ACS RT daemon>
		10.2.2 Qantify unit tests <URL:#tn=		10.2.2 Qantify unit tests>
	10.3 Code coverage, Purify, Quantify Using maven <URL:#tn=	10.3 Code coverage, Purify, Quantify Using maven>
		10.3.1 Generate reports <URL:#tn=		10.3.1 Generate reports>
		10.3.2 How to run rt_daemon from the dev. view with connection to existed acs installation <URL:#tn=		10.3.2 How to run rt_daemon from the dev. view with connection to existed acs installation>
		10.3.3 How to create rpm on the dev. view <URL:#tn=		10.3.3 How to create rpm on the dev. view>
		10.3.4 How to run daemon with generated file on fresh install <URL:#tn=		10.3.4 How to run daemon with generated file on fresh install>
		10.2.2 View reports <URL:#tn=		10.2.2 View reports>
			10.2.2.1 Latest reports: <URL:#tn=			10.2.2.1 Latest reports:>
		10.2.3 Attach reports to module <URL:#tn=		10.2.3 Attach reports to module>
	10.4 Run rt_daemon from the dev. view with connection to existed acs installation <URL:#tn=	10.4 Run rt_daemon from the dev. view with connection to existed acs installation>
	10.5 How to create rpm on the dev. view <URL:#tn=	10.5 How to create rpm on the dev. view>
	10.6 How to get "package.cab" of the running ACS? <URL:#tn=	10.6 How to get "package.cab" of the running ACS?>
	10.7 Purify with ACS versions using Makefile <URL:#tn=	10.7 Purify with ACS versions using Makefile>
	10.8 Valgrind ACS memory leak tests <URL:#tn=	10.8 Valgrind ACS memory leak tests>
		10.8.1 Additiona info <URL:#tn=		10.8.1 Additiona info>
		10.8.2 Valgrind procedure <URL:#tn=		10.8.2 Valgrind procedure>
		10.8.3 <URL:#tn=		10.8.3>
	10.9 <URL:#tn=	10.9>
11. Information model <URL:#tn=11. Information model>
	11.1 URL, https://gui-framework-lnx/acsIM/review/Indexs/indexLeft.html <URL:#tn=	11.1 URL, https://gui-framework-lnx/acsIM/review/Indexs/indexLeft.html>
12. Configuration <URL:#tn=12. Configuration>
	12.1 XML configuration <URL:#tn=	12.1 XML configuration>
		12.1.1 Code for loading configuration <URL:#tn=		12.1.1 Code for loading configuration>
13. ACS Troubleshoot <URL:#tn=13. ACS Troubleshoot>
	13.1 Monitor, watchdog process. <URL:#tn=	13.1 Monitor, watchdog process.>
		1. Start the process using the start command specified in the watchdog configuration file <URL:#tn=		1. Start the process using the start command specified in the watchdog configuration file>
		2. Start and stop acs processes without the watchdog monitoring: <URL:#tn=		2. Start and stop acs processes without the watchdog monitoring:>
		13.2 Use monitor to manage ACS <URL:#tn=		13.2 Use monitor to manage ACS>
			13.2.1 Service status <URL:#tn=			13.2.1 Service status>
14. Automated BATS env. <URL:#tn=14. Automated BATS env.>
	14.1 setup the env. <URL:#tn=	14.1 setup the env.>
	14.2 Run a test. <URL:#tn=	14.2 Run a test.>
		14.2.1 Define a new test <URL:#tn=		14.2.1 Define a new test>
			14.2.1.1 Add java class test to Tests project <URL:#tn=			14.2.1.1 Add java class test to Tests project>
			14.2.1.2 Configure Test (based on test template) <URL:#tn=			14.2.1.2 Configure Test (based on test template)>
	14.3 Examine test results <URL:#tn=	14.3 Examine test results>
		14.3.1 Local AMS ( Archive Management System ) DB server <URL:#tn=		14.3.1 Local AMS ( Archive Management System ) DB server>
	14.4 BATS on demands <URL:#tn=	14.4 BATS on demands>
15. ACS Builds and system tests and use cases <URL:#tn=15. ACS Builds and system tests and use cases>
	15.1 Testing builds, System tests <URL:#tn=	15.1 Testing builds, System tests>
		15.1.1 Tests for Active Directory (AD) MSChap v2. user authentication and change password (with AD external ID store) <URL:#tn=		15.1.1 Tests for Active Directory (AD) MSChap v2. user authentication and change password (with AD external ID store)>
			15.1.1.1 Configure ACS <URL:#tn=			15.1.1.1 Configure ACS>
				15.1.1.1.1 Preliminery steps <URL:#tn=				15.1.1.1.1 Preliminery steps>
				15.1.1.1.2 Add clients IP, AAA client. <URL:#tn=				15.1.1.1.2 Add clients IP, AAA client.>
				15.1.1.1.3 Configure AD <URL:#tn=				15.1.1.1.3 Configure AD>
					15.1.1.1.3.1 Connection <URL:#tn=					15.1.1.1.3.1 Connection>
					15.1.1.1.3.2 Groups <URL:#tn=					15.1.1.1.3.2 Groups>
					15.1.1.1.3.2 Attributes <URL:#tn=					15.1.1.1.3.2 Attributes>
				15.1.1.1.4 Create Network access Profile  <URL:#tn=				15.1.1.1.4 Create Network access Profile >
				15.1.1.1.5 Configure Policies <URL:#tn=				15.1.1.1.5 Configure Policies>
					15.1.1.1.5.1 Add Custom condition <URL:#tn=					15.1.1.1.5.1 Add Custom condition>
					15.1.1.1.5.1 Configure Access Service <URL:#tn=					15.1.1.1.5.1 Configure Access Service>
					15.1.1.1.5.2 Configure Access Service Authentication (Identity) Policy <URL:#tn=					15.1.1.1.5.2 Configure Access Service Authentication (Identity) Policy>
					15.1.1.1.5.3 Configure Access Service Authorization Policy <URL:#tn=					15.1.1.1.5.3 Configure Access Service Authorization Policy>
					15.1.1.1.5.3 Configure Access Group Mapping Policy <URL:#tn=					15.1.1.1.5.3 Configure Access Group Mapping Policy>
				15.1.1.1.6 Configure logs <URL:#tn=				15.1.1.1.6 Configure logs>
					15.1.1.1.6.1 Configure syslog <URL:#tn=					15.1.1.1.6.1 Configure syslog>
					15.1.1.1.6.2 Configure Log Categories <URL:#tn=					15.1.1.1.6.2 Configure Log Categories>
					15.1.1.1.6.3 Summary <URL:#tn=					15.1.1.1.6.3 Summary>
			15.1.1.2 Run test <URL:#tn=			15.1.1.2 Run test>
			15.1.1.3 Known issues as of 17/04/08 <URL:#tn=			15.1.1.3 Known issues as of 17/04/08>
		15.1.2 Tests for Active Directory (AD) machine authentication and change password using real setup (PEAP/ EAP-FAST) <URL:#tn=		15.1.2 Tests for Active Directory (AD) machine authentication and change password using real setup (PEAP/ EAP-FAST)>
		15.1.2.1 Setup Details (Very Dynamic) <URL:#tn=		15.1.2.1 Setup Details (Very Dynamic)>
			15.1.2.1.1 Supplicant <URL:#tn=			15.1.2.1.1 Supplicant>
				15.1.2.1.1.1  Configure Supplicant <URL:#tn=				15.1.2.1.1.1  Configure Supplicant>
				15.1.2.1.1.2 Notes about compatability <URL:#tn=				15.1.2.1.1.2 Notes about compatability>
			15.1.2.1.2 Access Point <URL:#tn=			15.1.2.1.2 Access Point>
				15.1.2.1.2.1 Configure Access Point <URL:#tn=				15.1.2.1.2.1 Configure Access Point>
			15.1.2.1.3 ACS certificate configuration <URL:#tn=			15.1.2.1.3 ACS certificate configuration>
				15.1.2.1.3.1 Install CA certificate <URL:#tn=				15.1.2.1.3.1 Install CA certificate>
				15.1.2.1.3.2 Install ACS Server certificate <URL:#tn=				15.1.2.1.3.2 Install ACS Server certificate>
			15.1.2.2 Setup management and preparations <URL:#tn=			15.1.2.2 Setup management and preparations>
				15.1.2.2.1 User authentication <URL:#tn=				15.1.2.2.1 User authentication>
		15.1.3 AD setup, verification for ACS tests <URL:#tn=		15.1.3 AD setup, verification for ACS tests>
			15.1.3.1 Manage AD <URL:#tn=			15.1.3.1 Manage AD>
		15.1.4 Test for MAB <URL:#tn=		15.1.4 Test for MAB>
			15.1.4.1 Configure ACS <URL:#tn=			15.1.4.1 Configure ACS>
			15.1.4.2 Configure winRds <URL:#tn=			15.1.4.2 Configure winRds>
		15.1.5 <URL:#tn=		15.1.5>
	15.2 EAP-TLS <URL:#tn=	15.2 EAP-TLS>
		15.2.1 ACS Configuration <URL:#tn=		15.2.1 ACS Configuration>
			15.2.1.1 Aquire certificate set (client, server and CA) <URL:#tn=			15.2.1.1 Aquire certificate set (client, server and CA)>
			15.2.1.2 Users and Identity Stores->Certificate Authorities <URL:#tn=			15.2.1.2 Users and Identity Stores->Certificate Authorities>
			15.2.1.3 System Administration->Configuration >Local Server Certificates >Local Certificates <URL:#tn=			15.2.1.3 System Administration->Configuration >Local Server Certificates >Local Certificates>
			15.2.1.4 Access service <URL:#tn=			15.2.1.4 Access service>
			15.2.1.5 Users and Identity Stores->Certificate authentication profile <URL:#tn=			15.2.1.5 Users and Identity Stores->Certificate authentication profile>
		15.2.2 Client configuration (usually, my laptop) <URL:#tn=		15.2.2 Client configuration (usually, my laptop)>
		15.2.3 Stress employer configuration <URL:#tn=		15.2.3 Stress employer configuration>
		15.2.4 WinRadius configuration <URL:#tn=		15.2.4 WinRadius configuration>
	15.3 LDAP <URL:#tn=	15.3 LDAP>
		15.3.1 ACS configuration <URL:#tn=		15.3.1 ACS configuration>
			15.3.1.1 LDAP ID Store <URL:#tn=			15.3.1.1 LDAP ID Store>
		15.3.2 <URL:#tn=		15.3.2>
	15.4 Tacacs, T+, Authorization <URL:#tn=	15.4 Tacacs, T+, Authorization>
	15.5 <URL:#tn=	15.5>
16. Passwords <URL:#tn=16. Passwords>
	16.1 Testing ACS machines <URL:#tn=	16.1 Testing ACS machines>
	16.2 odermer-lnx dev machine <URL:#tn=	16.2 odermer-lnx dev machine>
	16.3 yizaq-lnx <URL:#tn=	16.3 yizaq-lnx>
	16.4 albarak-lnx <URL:#tn=	16.4 albarak-lnx>
17. Resources <URL:#tn=17. Resources>
	17.1 Dev machines <URL:#tn=	17.1 Dev machines>
		17.1.1 yizaq-lnx static IP 64.103.112.48 <URL:#tn=		17.1.1 yizaq-lnx static IP 64.103.112.48>
			17.1.1 yizaq-lnx CC not configured issue <URL:#tn=			17.1.1 yizaq-lnx CC not configured issue>
18. ACS 5.0 Source Code information, tips and tricks <URL:#tn=18. ACS 5.0 Source Code information, tips and tricks>
	18.1 Logging <URL:#tn=	18.1 Logging>
		18.1.1 Log print a binary buffer as hex . <URL:#tn=		18.1.1 Log print a binary buffer as hex .>
			18.1.1.1 Dump a char * or binary blob <URL:#tn=			18.1.1.1 Dump a char * or binary blob>
			18.1.1.2 Dump a byte vector (OctetBuffer) <URL:#tn=			18.1.1.2 Dump a byte vector (OctetBuffer)>
	18.2 Multithreading <URL:#tn=	18.2 Multithreading>
		18.2.1 Using ACS wrapper of ACE locks <URL:#tn=		18.2.1 Using ACS wrapper of ACE locks>
		18.2.2 Diagram. CoA threading model <URL:#tn=		18.2.2 Diagram. CoA threading model>
		18.2.3 <URL:#tn=		18.2.3>
	18.3 Add Customer logs (to messagecatalog) <URL:#tn=	18.3 Add Customer logs (to messagecatalog)>
		18.3.1 Adding a message <URL:#tn=		18.3.1 Adding a message>
		18.3.2 Minimum instruction set to build RT component after changes in Message Catalog <URL:#tn=		18.3.2 Minimum instruction set to build RT component after changes in Message Catalog>
		18.3.3 Notes about msg catalog <URL:#tn=		18.3.3 Notes about msg catalog>
	18.4 Composable flows <URL:#tn=	18.4 Composable flows>
		18.4.1 Pseudo code of composable flows <URL:#tn=		18.4.1 Pseudo code of composable flows>
	18.4 Components <URL:#tn=	18.4 Components>
		18.4.1  Active Directory <URL:#tn=		18.4.1  Active Directory>
			18.4.1.1  Active Directory related flows <URL:#tn=			18.4.1.1  Active Directory related flows>
				18.4.1.1.1  PAP authentication with groups & attributes retrieval + default authorization permit access <URL:#tn=				18.4.1.1.1  PAP authentication with groups & attributes retrieval + default authorization permit access>
				18.4.1.1.2 PAP authentication failed due to wrong password <URL:#tn=				18.4.1.1.2 PAP authentication failed due to wrong password>
				18.4.1.1.3 PAP authentication failed due to connection error <URL:#tn=				18.4.1.1.3 PAP authentication failed due to connection error>
				18.4.1.1.4 EAP-Fast phase 0 (pac provisioning) with inner MSCHAP with groups & attributes retrieval <URL:#tn=				18.4.1.1.4 EAP-Fast phase 0 (pac provisioning) with inner MSCHAP with groups & attributes retrieval>
				18.4.1.1.5 EAP-Fast phase 1 with groups & attributes retrieval <URL:#tn=				18.4.1.1.5 EAP-Fast phase 1 with groups & attributes retrieval>
				18.4.1.1.6 EAP-FAST phase 1 failed due to connection error in AD <URL:#tn=				18.4.1.1.6 EAP-FAST phase 1 failed due to connection error in AD>
	18.5 Handling binary data <URL:#tn=	18.5 Handling binary data>
		18.5.1 Making sure binary data is deep copied and not pointer copied (which may get it freed or overrun) <URL:#tn=		18.5.1 Making sure binary data is deep copied and not pointer copied (which may get it freed or overrun)>
	18.6 Code snippets <URL:#tn=	18.6 Code snippets>
		18.6.1 Set Radius attributes on response (very similiar to request for radius client) <URL:#tn=		18.6.1 Set Radius attributes on response (very similiar to request for radius client)>
		18.6.2 Fix const correctness errors <URL:#tn=		18.6.2 Fix const correctness errors>
		18.6.3 Dynamicly set attribute to ACS RT dictionary <URL:#tn=		18.6.3 Dynamicly set attribute to ACS RT dictionary>
		18.6.4 <URL:#tn=		18.6.4>
	18.7 <URL:#tn=	18.7>
19. ACS builds <URL:#tn=19. ACS builds>
	19.1 ACS 5.0 builds <URL:#tn=	19.1 ACS 5.0 builds>
		19.1.1  DST-15 build <URL:#tn=		19.1.1  DST-15 build>
	19.2 <URL:#tn=	19.2>
20. FAQS <URL:#tn=20. FAQS>
	20.1 Active Directory <URL:#tn=	20.1 Active Directory>
		20.1.1  Why can't I authenticate user when authenticating against a trusted foreign DC in forest? <URL:#tn=		20.1.1  Why can't I authenticate user when authenticating against a trusted foreign DC in forest?>
	20.2 <URL:#tn=	20.2>
21. ACS box CLI <URL:#tn=21. ACS box CLI>
	21.1 Open debug logs <URL:#tn=	21.1 Open debug logs>
		21.1.1 Open AD (centrify) debug logs <URL:#tn=		21.1.1 Open AD (centrify) debug logs>
	21.2 Backup/Restore configuration <URL:#tn=	21.2 Backup/Restore configuration>
	21.3 <URL:#tn=	21.3>
22. Features, Functionality, Components <URL:#tn=22. Features, Functionality, Components>
	22.1 AAC - Adminstrator Authentication Control <URL:#tn=	22.1 AAC - Adminstrator Authentication Control>
		22.1.1 What is it? <URL:#tn=		22.1.1 What is it?>
		22.1.2 Password and account managments <URL:#tn=		22.1.2 Password and account managments>
			22.1.2.1 Password lifetime reminder <URL:#tn=			22.1.2.1 Password lifetime reminder>
			22.1.2.2 Account inactivity <URL:#tn=			22.1.2.2 Account inactivity>
			22.1.2.3 Incorrect password attempts <URL:#tn=			22.1.2.3 Incorrect password attempts>
			22.1.2.4 Disable account <URL:#tn=			22.1.2.4 Disable account>
			22.1.2.5 Initiate Change password <URL:#tn=			22.1.2.5 Initiate Change password>
		22.1.3 <URL:#tn=		22.1.3>
	22.2 <URL:#tn=	22.2>
23. Crypto lib, PKI, FIPS <URL:#tn=23. Crypto lib, PKI, FIPS>
	23.1 Documents <URL:#tn=	23.1 Documents>
	23.2 <URL:#tn=	23.2>
24. EAP protocols <URL:#tn=24. EAP protocols>
25. Win Radius Simulator test cases <URL:#tn=25. Win Radius Simulator test cases>
	25.1 PEAP <URL:#tn=	25.1 PEAP>
	25.2 <URL:#tn=	25.2>
26. Costumer support <URL:#tn=26. Costumer support>
	26.1 Create support bundle <URL:#tn=	26.1 Create support bundle>
		26.1.1 from GUI <URL:#tn=		26.1.1 from GUI>
		26.1.2 from CLI <URL:#tn=		26.1.2 from CLI>
	26.2 <URL:#tn=	26.2>
27. <URL:#tn=27.>
.................................................END TOC..............................................
























































Description: 	ACS, AAA server application of Cisco, NMTG versions 5.x related knowledge.
Author:		Yosi Izaq.



1. Precedural data.
	1.1 Mailing lists
		acs-dev-runtime-5-0
		acs5-codereview
		acs5-dev

		To join place request at, http://mailer.cisco.com/protected-cgi-bin/WWWmajordomo?who=yytzhak&command=subscribe&list=acs-dev-runtime-5-0

2. Important documents.
	2.1 Get started

		2.1.1 RT architecture  (phase I) :
		http://wwwin-eng.cisco.com/Eng/NMTG/User_Services/Projects/ACS/ACS_5.0/Sys_Specs/ACS_5.0_Runtime_Architecture_Specification.doc
 
		2.1.2 ACS 5.0 portal:
		http://zed.cisco.com/confluence/display/ACS5/Home

		2.1.3 AAC SFS:
		http://wwwin-eng.cisco.com/protected-cgi-bin/edcs/edcs_attr_search.pl?doc_num=EDCS-585132
		 
		2.1.4 RT architecture (phase II):
		http://wwwin-eng.cisco.com/Eng/NMTG/User_Services/Projects/ACS/ACS_5.0/Phase_II/Sys_Specs/
 
		2.1.5 PKI, ID Stores
ACS 5.0 FCS Phase - Identity / Policy Functionality SFS, EDCS 591943, Sections 3.5.3.7.2, 4.1.3.1

LDAP SFS, EDCS 663794 

ACS GUI Mocup, Wiki: http://zed.cisco.com/confluence/display/ACS5/Mockup+Wiki 

PKI Management SFS : EDCS-673011
PKI 662853 

	2.2 TAC Training
All ACS 5.0 TAC slides are here: http://wwwin-eng.cisco.com/Eng/NMTG/User_Services/Projects/ACS/ACS_5.0/FCS_Phase/Presentations/

Enjoy.



	2.3 User guide
- ACS 4.1:
http://www.cisco.com/en/US/docs/net_mgmt/cisco_secure_access_control_server_for_windows/4.1/user/UsrDb.html

	2.4

3.	Development environment.
	3.1 Important links
		3.1.1 Developer zone.
		http://zed.cisco.com/confluence/display/ACS5/Developers+Zone

		3.2.2 Path to runtime code
		/view/<view_name>/vob/nm_acs/acs/runtime/

	3.2 Tools
		3.2.1 Clear Case

		3.2.2 Reflection

		3.2.3 K Develop

		3.2.4 Putty

		3.2.5 Testing
			
			3.2.5.1 Tacacs client
				3.2.5.1.1 Built-in ACS4


			install ACS 4.X version. Then
			Program Files\CiscoSecure ACS v4.1\bin\Tactest.exe -H yizaq-lnx -p 1049

				3.2.5.1.2 winTacacs
"c:\work\acs\test tools\TestTools3.8\WinTacacs.exe" 

Ex cfg:
User: host/yizaq-lnx
pwd: whatever
Authentication type: Inbound Ascii login

Authorization Details -> Authentication method: Tacacs+
Authorization Details -> Authentication type: PAP
Authorization Details -> Authentication service: login
Authorization Commands -> Authorization Attributes: 
	service: Shell


				3.2.5.1.3
			3.2.5.2 ACS client

				3.2.5.2.1 Install
-> To get latest version go to:
http://zed.cisco.com/confluence/pages/viewpageattachments.action?pageId=7274965

-> DL and extract the zipfile(s) to whatever directory you desire.

				3.2.5.2.2 Preliminery configuration

Edit the file 'AcsClient-<ver>\acsClient.InstallationDefaults.txt' and, at the very least,
